Version 4
SHEET 1 880 720
WIRE 208 96 160 96
WIRE 160 256 160 96
WIRE 208 256 160 256
WIRE 368 256 304 256
SYMBOL nmos4 304 48 R90
SYMATTR InstName M1
SYMBOL nmos4 320 432 R90
SYMATTR InstName M2
SYMBOL pmos4 304 208 R90
SYMATTR InstName M3
SYMBOL pmos4 320 592 R90
SYMATTR InstName M4
