Version 4
SHEET 1 880 952
WIRE 288 64 288 16
WIRE 288 64 160 64
WIRE 400 64 288 64
WIRE 160 80 160 64
WIRE 240 80 160 80
WIRE 400 80 400 64
WIRE 496 80 400 80
WIRE 240 128 240 80
WIRE 240 128 160 128
WIRE 496 128 496 80
WIRE 496 128 400 128
WIRE -592 160 -592 48
WIRE 112 160 -592 160
WIRE -432 192 -432 48
WIRE 352 192 352 160
WIRE 352 192 -432 192
WIRE 160 224 160 176
WIRE 240 224 160 224
WIRE 400 224 400 176
WIRE 496 224 400 224
WIRE 240 272 240 224
WIRE 240 272 160 272
WIRE 496 272 496 224
WIRE 496 272 400 272
WIRE -272 304 -272 48
WIRE 112 304 -272 304
WIRE -128 336 -128 48
WIRE 352 336 352 304
WIRE 352 336 -128 336
WIRE 160 368 160 320
WIRE 288 368 160 368
WIRE 400 368 400 320
WIRE 400 368 288 368
WIRE 288 400 288 368
WIRE 624 400 288 400
WIRE 288 416 288 400
WIRE 560 416 288 416
WIRE 288 432 288 416
WIRE 288 432 160 432
WIRE 400 432 288 432
WIRE 160 528 160 432
WIRE 400 528 400 432
WIRE 240 576 160 576
WIRE 480 576 400 576
WIRE -592 608 -592 160
WIRE 112 608 -592 608
WIRE 560 608 560 416
WIRE 672 608 560 608
WIRE -272 640 -272 304
WIRE 352 640 352 608
WIRE 352 640 -272 640
WIRE 160 656 160 624
WIRE 240 656 240 576
WIRE 240 656 160 656
WIRE 400 656 400 624
WIRE 480 656 480 576
WIRE 480 656 400 656
WIRE 160 688 160 656
WIRE 400 688 400 656
WIRE 240 736 160 736
WIRE 480 736 400 736
WIRE -432 768 -432 192
WIRE 112 768 -432 768
WIRE 160 800 160 784
WIRE 240 800 240 736
WIRE 240 800 160 800
WIRE 400 800 400 784
WIRE 480 800 480 736
WIRE 480 800 400 800
WIRE -128 832 -128 336
WIRE 352 832 352 768
WIRE 352 832 -128 832
WIRE 160 864 160 800
WIRE 288 864 160 864
WIRE 400 864 400 800
WIRE 400 864 288 864
WIRE 288 880 288 864
WIRE 672 880 672 672
WIRE 672 880 288 880
WIRE 288 912 288 880
FLAG 288 -64 0
FLAG 624 400 OUT
IOPIN 624 400 Out
FLAG 288 912 0
FLAG -592 -32 0
FLAG -432 -32 0
FLAG -272 -32 0
FLAG -128 -32 0
SYMBOL pmos4 112 80 R0
SYMATTR InstName M1
SYMBOL pmos4 352 80 R0
SYMATTR InstName M2
SYMBOL pmos4 112 224 R0
SYMATTR InstName M3
SYMBOL pmos4 352 224 R0
SYMATTR InstName M4
SYMBOL voltage 288 32 R180
WINDOW 0 24 96 Left 2
WINDOW 3 24 16 Left 2
SYMATTR InstName V1
SYMATTR Value 1V
SYMBOL nmos4 112 528 R0
SYMATTR InstName M5
SYMBOL nmos4 352 528 R0
SYMATTR InstName M6
SYMBOL nmos4 352 688 R0
SYMATTR InstName M7
SYMBOL nmos4 112 688 R0
SYMATTR InstName M8
SYMBOL voltage -592 64 R180
WINDOW 0 24 96 Left 2
WINDOW 3 18 13 Left 1
WINDOW 123 0 0 Left 0
WINDOW 39 0 0 Left 0
SYMATTR InstName X
SYMATTR Value PULSE(0 1 0 0 0 10m 20m 1000)
SYMBOL voltage -432 64 R180
WINDOW 0 24 96 Left 2
WINDOW 3 2 -19 Left 1
WINDOW 123 0 0 Left 0
WINDOW 39 0 0 Left 0
SYMATTR InstName Y
SYMATTR Value PULSE(1 0 0 0 0 10m 20m 1000)
SYMBOL voltage -272 64 R180
WINDOW 0 24 96 Left 2
WINDOW 3 -5 -51 Left 1
WINDOW 123 0 0 Left 0
WINDOW 39 0 0 Left 0
SYMATTR InstName S
SYMATTR Value PULSE(0 1 0 0 0 30m 60m 1000)
SYMBOL voltage -128 64 R180
WINDOW 0 24 96 Left 2
WINDOW 3 -1 -108 Left 1
WINDOW 123 0 0 Left 0
WINDOW 39 0 0 Left 0
SYMATTR InstName SNOT
SYMATTR Value PULSE(1 0 0 0 0 30m 60m 1000)
SYMBOL cap 656 608 R0
SYMATTR InstName C1
SYMATTR Value 50F
TEXT -952 936 Left 2 !.tran 75
TEXT -1016 152 Left 2 ;118CS0017
TEXT -1072 224 Left 2 ;2:1 MUX using CMOS
