Version 4
SHEET 1 880 680
WIRE 224 -160 -16 -160
WIRE -16 -112 -16 -160
WIRE 224 -64 224 -160
WIRE 224 -16 224 -64
WIRE 336 -16 224 -16
WIRE 176 16 16 16
WIRE 16 32 16 16
WIRE 16 32 -336 32
WIRE 336 112 336 -16
WIRE 336 112 224 112
WIRE 176 144 -32 144
WIRE 544 160 224 160
WIRE -32 176 -32 144
WIRE -32 176 -144 176
WIRE -336 192 -336 32
WIRE 224 192 224 160
WIRE 224 192 112 192
WIRE 304 192 224 192
WIRE 304 208 304 192
WIRE 16 272 16 32
WIRE 64 272 16 272
WIRE -144 304 -144 176
WIRE -32 304 -32 176
WIRE 256 304 256 288
WIRE 256 304 -32 304
WIRE 112 352 112 288
WIRE 192 352 112 352
WIRE 304 352 304 304
WIRE 304 352 192 352
WIRE 192 384 192 352
FLAG -336 272 0
FLAG -144 384 0
FLAG -16 -32 0
FLAG 192 384 0
FLAG -128 160 Vb
FLAG 544 160 Vout
SYMBOL nmos 64 192 R0
SYMATTR InstName M1
SYMBOL nmos 256 208 R0
SYMATTR InstName M2
SYMBOL pmos 176 64 R0
SYMATTR InstName M3
SYMBOL voltage -336 176 R0
WINDOW 123 0 0 Left 0
WINDOW 39 0 0 Left 0
SYMATTR InstName V1
SYMATTR Value PULSE(0 5 0 1n 1n 20u 30u)
SYMBOL voltage -144 288 R0
WINDOW 123 0 0 Left 0
WINDOW 39 0 0 Left 0
SYMATTR InstName V2
SYMATTR Value PULSE(0 5 5u 1n 1n 20u 30u)
SYMBOL voltage -16 -128 R0
WINDOW 123 0 0 Left 0
WINDOW 39 0 0 Left 0
SYMATTR InstName V3
SYMATTR Value 5
SYMBOL pmos 176 -64 R0
SYMATTR InstName M4
TEXT -370 408 Left 2 !.tran 0 200u 1u
